LAMMPS (18 Jun 2019)
# ---------- Initialize Simulation ---------------------
variable alat equal 3.92580364
variable xdim equal 3.92580364*5
variable T equal 800
variable T2 equal 800
variable tstep equal 0.0001
variable runtime equal 100000
variable Srandomseed equal 1001

clear
units metal
dimension 3
boundary p p p
atom_style atomic

# ---------- Create Atomistic Structure ---------------------
lattice fcc 3.92580364
Lattice spacing in x,y,z = 3.9258 3.9258 3.9258
region whole block 0 19.6290182 0 19.6290182 0 19.6290182 units box
create_box 2 whole
Created orthogonal box = (0 0 0) to (19.629 19.629 19.629)
create_atoms 1 region whole
Created 500 atoms
create_atoms 2 random 1 1001 NULL
Created 1 atoms

mass 1 106.42
mass 2 1.

# ---------- Define Interatomic Potential ---------------------
pair_style	eam/alloy
pair_coeff * * PdH_zhou.eam.alloy Pd H

timestep 0.0001

# ----- perform MD -------
velocity all create 800 1001
fix 1 all nvt temp 800 800 0.2

#----- end MD ------
thermo 100
thermo_style custom step lx atoms temp pe lx ly lz press pxx pyy pzz
thermo_modify lost ignore flush yes

dump 1 all custom 100 movies/*.chkpt id type mass x y z

run 100000
  update every 1 steps, delay 10 steps, check yes
Step Lx Atoms Temp PotEng Lx Ly Lz Press Pxx Pyy Pzz
0    19.629018      501          800   -1952.3542    19.629018    19.629018    19.629018   -53916.332   -54076.886   -53853.192   -53818.919
Averages over the last 501 of 1001 rows, steps 50000 to 100000:
Lx Atoms Temp PotEng Lx Ly Lz Press Pxx Pyy Pzz
19.629 501 794.307 -1900.49 19.629 19.629 19.629 1033.27 1179.63 917.494 1002.69
Loop time of 71.3141 on 1 procs for 100000 steps with 501 atoms
